Version 4
SHEET 1 952 680
WIRE 560 -144 416 -144
WIRE 896 -144 560 -144
WIRE 560 -96 560 -144
WIRE 416 -80 416 -144
WIRE 560 16 560 -16
WIRE 896 32 896 -144
WIRE 192 64 32 64
WIRE 416 64 416 0
WIRE 416 64 336 64
WIRE 496 64 416 64
WIRE 560 128 560 112
WIRE 688 128 560 128
WIRE 32 144 32 64
WIRE 416 144 416 64
WIRE 560 144 560 128
WIRE 688 160 688 128
WIRE 32 288 32 224
WIRE 416 288 416 224
WIRE 416 288 32 288
WIRE 560 288 560 224
WIRE 560 288 416 288
WIRE 688 288 688 224
WIRE 688 288 560 288
WIRE 896 288 896 112
WIRE 896 288 688 288
FLAG 32 288 0
SYMBOL Misc\\signal 32 128 R0
WINDOW 123 0 0 Left 0
WINDOW 39 0 0 Left 0
SYMATTR InstName V1
SYMATTR Value PULSE(0 5 0 1n 1n 1u 3u 1k)
SYMBOL res 288 48 R90
WINDOW 0 0 56 VBottom 2
WINDOW 3 32 56 VTop 2
SYMATTR InstName R1
SYMATTR Value 200
SYMBOL cap 336 48 R90
WINDOW 0 0 32 VBottom 2
WINDOW 3 32 32 VTop 2
SYMATTR InstName C1
SYMATTR Value 10n
SYMBOL npn 496 16 R0
SYMATTR InstName Q1
SYMATTR Value BC817-40
SYMBOL res 400 128 R0
SYMATTR InstName R2
SYMATTR Value 2k
SYMBOL res 400 -96 R0
SYMATTR InstName R3
SYMATTR Value 20k
SYMBOL res 544 128 R0
SYMATTR InstName R4
SYMATTR Value 220
SYMBOL voltage 896 16 R0
WINDOW 123 0 0 Left 0
WINDOW 39 0 0 Left 0
SYMATTR InstName V2
SYMATTR Value 12
SYMBOL res 544 -112 R0
SYMATTR InstName R5
SYMATTR Value 5k
SYMBOL cap 704 224 R180
WINDOW 0 24 56 Left 2
WINDOW 3 24 8 Left 2
SYMATTR InstName C2
SYMATTR Value 10n
TEXT -2 312 Left 2 !.tran 0 50u 0 1u
